[TITLE]
1987 Lansdale WADISO file converted to EPANET - WMG 2/7/93 
Major upgrade to 1993 conditions - WMG 3/27/93 
Modified 5/93 by Bruce Herwig. 

[JUNCTIONS]
 1                                   432.0000
 2                                   335.0000
 3                                   236.0000
 4                                   231.0000
 5                                   240.0000
 6                                   275.0000
 7                                   310.0000
 8                                   315.0000
 9                                   308.0000
 10                                  265.0000
 11                                  265.0000
 12                                  285.0000
 13                                  265.0000
 14                                  265.0000
 15                                  260.0000
 16                                  206.0000
 17                                  214.0000
 18                                  198.0000
 19                                  208.0000
 20                                  190.0000
 21                                  182.0000
 22                                  200.0000
 23                                  250.0000
 24                                  230.0000
 25                                  222.0000
 26                                  285.0000
 27                                  250.0000
 28                                  275.0000
 29                                  272.0000
 30                                  290.0000
 31                                  281.0000
 32                                  285.0000
 33                                  293.0000
 34                                  290.0000
 35                                  310.0000
 36                                  325.0000
 37                                  312.0000
 38                                  318.0000
 39                                  327.0000
 40                                  318.0000
 41                                  292.0000
 42                                  290.0000
 43                                  320.0000
 44                                  330.0000
 45                                  326.0000
 46                                  318.0000
 47                                  320.0000
 48                                  345.0000
 49                                  344.0000
 50                                  329.0000
 51                                  330.0000
 52                                  330.0000
 53                                  332.0000
 54                                  324.0000
 55                                  320.0000
 56                                  310.0000
 57                                  328.0000
 58                                  325.0000
 59                                  311.0000
 60                                  348.0000
 61                                  343.0000
 62                                  363.0000
 63                                  355.0000
 64                                  356.0000
 65                                  356.0000
 66                                  341.0000
 67                                  347.0000
 68                                  352.0000
 69                                  349.0000
 70                                  351.0000
 71                                  329.0000
 72                                  330.0000
 73                                  334.0000
 74                                  343.0000
 75                                  352.0000
 76                                  352.0000
 77                                  382.0000
 85                                  383.0000
 87                                  385.0000
 88                                  380.0000
 89                                  372.0000
 143                                 374.0000
 144                                 372.0000
 145                                 372.0000
 146                                 369.0000
 147                                 355.0000
 148                                 349.0000
 150                                 353.0000
 151                                 365.0000
 152                                 364.0000
 153                                 358.0000
 154                                 358.0000
 155                                 362.0000
 156                                 360.0000
 157                                 358.0000
 158                                 365.0000
 159                                 360.0000
 163                                 354.0000
 164                                 352.0000
 165                                 358.0000
 166                                 350.0000
 167                                 346.0000
 168                                 344.0000
 169                                 338.0000
 170                                 334.0000
 171                                 336.0000
 172                                 332.0000
 173                                 318.0000
 174                                 328.0000
 175                                 336.0000
 176                                 344.0000
 177                                 341.0000
 178                                 336.0000
 179                                 330.0000
 180                                 334.0000
 181                                 325.0000
 182                                 336.0000
 183                                 336.0000
 184                                 333.0000
 185                                 336.0000
 187                                 350.0000
 188                                 347.0000
 189                                 352.0000
 190                                 341.0000
 191                                 342.0000
 192                                 344.0000
 193                                 338.0000
 194                                 336.0000
 195                                 366.0000
 196                                 350.0000
 197                                 354.0000
 198                                 344.0000
 199                                 316.0000
 200                                 321.0000
 201                                 312.0000
 202                                 298.0000
 203                                 290.0000
 204                                 280.0000
 205                                 284.0000
 206                                 276.0000
 207                                 304.0000
 208                                 300.0000
 209                                 294.0000
 210                                 288.0000
 211                                 284.0000
 212                                 302.0000
 213                                 300.0000
 214                                 322.0000
 215                                 332.0000
 216                                 357.0000
 217                                 288.0000
 218                                 292.0000
 219                                 278.0000
 220                                 280.0000
 221                                 294.0000
 222                                 310.0000
 223                                 312.0000
 224                                 306.0000
 225                                 306.0000
 226                                 320.0000
 227                                 328.0000
 228                                 316.0000
 229                                 308.0000
 230                                 308.0000
 231                                 312.0000
 232                                 306.0000
 233                                 306.0000
 234                                 322.0000
 235                                 324.0000
 236                                 326.0000
 237                                 322.0000
 238                                 340.0000
 239                                 341.0000
 240                                 300.0000
 241                                 333.0000
 242                                 320.0000
 243                                 312.0000
 244                                 288.0000
 245                                 270.0000
 246                                 280.0000
 247                                 282.0000
 248                                 302.0000
 249                                 328.0000
 250                                 282.0000
 251                                 324.0000
 252                                 278.0000
 253                                 268.0000
 254                                 280.0000
 255                                 260.0000
 256                                 319.0000
 257                                 321.0000
 258                                 342.0000
 259                                 256.0000
 260                                 240.0000
 261                                 210.0000
 262                                 226.0000
 263                                 202.0000
 264                                 244.0000
 265                                 266.0000
 266                                 242.0000
 267                                 220.0000
 268                                 240.0000
 269                                 198.0000
 270                                 198.0000
 271                                 280.0000
 272                                 320.0000
 273                                 310.0000
 274                                 324.0000
 275                                 310.0000
 276                                 250.0000
 277                                 280.0000
 278                                 342.0000
 279                                 260.0000
 280                                 276.0000
 281                                 270.0000
 282                                 260.0000
 283                                 256.0000
 284                                 244.0000
 285                                 216.0000
 286                                 240.0000
 287                                 240.0000
 288                                 240.0000
 289                                 276.0000
 290                                 230.0000
 291                                 230.0000
 292                                 204.0000
 293                                 340.0000
 294                                 322.0000
 295                                 320.0000
 296                                 318.0000
 297                                 298.0000
 298                                 290.0000
 299                                 320.0000
 300                                 336.0000
 301                                 304.0000
 302                                 322.0000
 303                                 322.0000
 304                                 300.0000
 305                                 301.0000
 306                                 336.0000
 307                                 328.0000
 308                                 310.0000
 309                                 301.0000
 310                                 348.0000
 311                                 284.0000
 312                                 280.0000
 313                                 280.0000
 314                                 370.0000
 315                                 356.0000
 316                                 382.0000
 317                                 316.0000
 318                                 300.0000
 319                                 280.0000
 320                                 322.0000
 321                                 328.0000
 322                                 318.0000
 323                                 284.0000
 324                                 260.0000
 325                                 264.0000
 326                                 342.0000
 327                                 344.0000
 328                                 362.0000
 329                                 362.0000
 330                                 354.0000
 331                                 344.0000
 332                                 342.0000
 334                                 372.0000
 335                                 378.0000
 336                                 384.0000
 337                                 428.0000
 428                                 282.0000
 429                                 282.0000
 430                                 337.0000
 431                                 340.0000
 432                                 341.0000
 433                                 232.0000
 434                                 225.0000
 435                                 260.0000
 436                                 270.0000
 437                                 275.0000
 438                                 276.0000
 439                                 343.0000
 440                                 330.0000
 441                                 282.0000
 444                                 340.0000
 445                                 370.0000
 446                                 264.0000
 447                                 275.0000
 448                                 270.0000
 449                                 342.0000
 450                                 341.0000
 453                                 335.0000
 454                                 290.0000
 455                                 356.0000
 457                                 299.0000
 458                                 290.0000
 459                                 289.0000
 460                                 328.0000
 461                                 270.0000
 462                                 263.0000
 463                                 265.0000
 500                                 340.0000
 501                                 300.0000
 502                                 330.0000
 504                                 330.0000
 505                                 310.0000
 506                                 300.0000
 507                                 330.0000
 508                                 330.0000
 509                                 320.0000
 510                                 320.0000
 591                                 444.0000
 615                                 350.0000
 616                                 280.0000
 617                                 250.0000
 618                                 275.0000
 619                                 280.0000
 620                                 240.0000
 621                                 250.0000
 622                                 230.0000
 623                                 240.0000
 624                                 250.0000
 625                                 200.0000
 626                                 260.0000
 627                                 250.0000
 628                                 260.0000
 629                                 260.0000
 630                                 320.0000
 634                                 200.0000
 635                                 428.0000
 636                                 327.0000
 637                                 309.0000
 638                                 315.0000
 639                                 277.0000
 640                                 350.0000
 641                                 315.0000
 700                                 336.0000

[RESERVOIRS]

[TANKS]
 186                                 444.0000      29.0000       0.0000      42.0000     100.0000       0.0000 
 338                                 444.0000      32.6000       0.0000      42.0000      66.0000       0.0000 

[PIPES]
 1                               1                               2                                  4005.0000      16.0000     120.0000       0.0000 
 2                               2                               3                                  4805.2000      16.0000     120.0000       0.0000 
 3                               5                               4                                   848.5000      12.0000     120.0000       0.0000 
 4                               4                               3                                  1900.0000      12.0000     120.0000       0.0000 
 5                               3                               6                                  1603.1000      16.0000     120.0000       0.0000 
 6                               6                               7                                  2012.5000      16.0000     120.0000       0.0000 
 7                               7                               8                                  3000.0000      16.0000     120.0000       0.0000 
 8                               8                               9                                   800.0000      16.0000     120.0000       0.0000 
 9                               9                               10                                 2100.0000      12.0000     120.0000       0.0000 
 10                              10                              11                                 2100.0000      12.0000     120.0000       0.0000 
 11                              9                               12                                 1236.9000      12.0000     120.0000       0.0000 
 12                              10                              15                                 1802.8000       8.0000     120.0000       0.0000 
 13                              14                              15                                  538.5000      12.0000     120.0000       0.0000 
 14                              15                              16                                  500.0000      12.0000     120.0000       0.0000 
 15                              11                              17                                 1708.8000      12.0000     120.0000       0.0000 
 16                              17                              16                                 1118.0000      12.0000     120.0000       0.0000 
 17                              16                              24                                 1769.2000      12.0000     120.0000       0.0000 
 18                              24                              25                                  640.3000      12.0000     120.0000       0.0000 
 19                              25                              26                                 1746.4000       8.0000     100.0000       0.0000 
 20                              26                              27                                 1612.5000       8.0000     120.0000       0.0000 
 21                              27                              28                                 1100.0000      12.0000     120.0000       0.0000 
 22                              27                              29                                  900.0000      12.0000     120.0000       0.0000 
 23                              26                              30                                 1726.3000       8.0000     100.0000       0.0000 
 24                              30                              29                                 1700.0000      16.0000     120.0000       0.0000 
 25                              31                              30                                 2700.0000      16.0000     120.0000       0.0000 
 26                              438                             31                                 1500.0000      12.0000     120.0000       0.0000 
 27                              31                              32                                 2900.0000      16.0000     120.0000       0.0000 
 28                              32                              33                                 1702.9000      12.0000     120.0000       0.0000 
 29                              33                              34                                  707.1000       6.0000     120.0000       0.0000 
 30                              33                              256                                2701.9000      12.0000     120.0000       0.0000 
 31                              17                              18                                  984.9000      12.0000     120.0000       0.0000 
 32                              19                              18                                  509.9000       6.0000     120.0000       0.0000 
 33                              18                              20                                 2109.5000      12.0000     120.0000       0.0000 
 34                              20                              21                                 1000.0000       8.0000     120.0000       0.0000 
 35                              20                              22                                 1802.8000      12.0000     120.0000       0.0000 
 36                              17                              23                                 1300.0000       8.0000     120.0000       0.0000 
 37                              23                              22                                 2901.7000       8.0000     120.0000       0.0000 
 38                              22                              433                                1500.0000      12.0000     120.0000       0.0000 
 39                              618                             436                                1800.0000      12.0000     120.0000       0.0000 
 40                              436                             435                                 800.0000      12.0000     120.0000       0.0000 
 41                              435                             434                                 800.0000      12.0000     120.0000       0.0000 
 42                              434                             433                                2282.5000      12.0000     120.0000       0.0000 
 43                              433                             32                                 3000.0000      12.0000     120.0000       0.0000 
 44                              29                              38                                 2800.0000      12.0000     100.0000       0.0000 
 45                              30                              35                                 1118.0000      10.0000     100.0000       0.0000 
 46                              35                              36                                 1612.5000       8.0000     100.0000       0.0000 
 47                              36                              37                                  700.0000       8.0000     120.0000       0.0000 
 48                              37                              38                                 1403.6000       8.0000     120.0000       0.0000 
 49                              38                              39                                 1800.0000      12.0000     100.0000       0.0000 
 50                              37                              453                                 948.7000       8.0000     120.0000       0.0000 
 51                              39                              40                                 2100.0000       8.0000     120.0000       0.0000 
 52                              39                              48                                  900.0000      12.0000     100.0000       0.0000 
 53                              48                              49                                  500.0000      12.0000     100.0000       0.0000 
 54                              48                              47                                 1664.3000       8.0000     120.0000       0.0000 
 55                              41                              40                                  900.0000       8.0000     120.0000       0.0000 
 56                              42                              41                                  316.2000       6.0000     120.0000       0.0000 
 57                              41                              43                                 1118.0000       8.0000     120.0000       0.0000 
 58                              47                              43                                  538.5000       8.0000     120.0000       0.0000 
 59                              43                              44                                  860.2000       6.0000     120.0000       0.0000 
 60                              45                              43                                  412.3000       8.0000     120.0000       0.0000 
 61                              46                              45                                  300.0000       6.0000     120.0000       0.0000 
 62                              45                              73                                 1044.0000       8.0000     120.0000       0.0000 
 63                              47                              71                                 1334.2000       6.0000     120.0000       0.0000 
 64                              74                              73                                  360.6000       8.0000     120.0000       0.0000 
 65                              73                              72                                  400.0000       8.0000     120.0000       0.0000 
 66                              72                              71                                  300.0000       8.0000     120.0000       0.0000 
 67                              71                              70                                 1100.0000       6.0000     100.0000       0.0000 
 68                              70                              69                                  400.0000       8.0000     100.0000       0.0000 
 69                              49                              69                                 1300.0000       8.0000     100.0000       0.0000 
 70                              69                              68                                  900.0000       6.0000     100.0000       0.0000 
 71                              68                              67                                  400.0000       6.0000     100.0000       0.0000 
 72                              51                              67                                  600.0000       6.0000     100.0000       0.0000 
 73                              52                              51                                  200.0000       6.0000     100.0000       0.0000 
 74                              51                              50                                  300.0000       6.0000     100.0000       0.0000 
 75                              49                              50                                  900.0000       8.0000     100.0000       0.0000 
 76                              50                              53                                 1000.0000       8.0000     100.0000       0.0000 
 77                              53                              54                                  509.9000       6.0000     120.0000       0.0000 
 78                              55                              54                                  223.6000       6.0000     120.0000       0.0000 
 79                              54                              56                                 1000.0000       6.0000     120.0000       0.0000 
 80                              53                              57                                 1104.5000       8.0000     100.0000       0.0000 
 81                              57                              58                                  300.0000       8.0000     100.0000       0.0000 
 82                              58                              59                                 2500.0000       6.0000     120.0000       0.0000 
 83                              58                              60                                  700.0000       8.0000     100.0000       0.0000 
 84                              60                              61                                  800.0000       8.0000     100.0000       0.0000 
 85                              61                              77                                 2302.2000       8.0000     100.0000       0.0000 
 86                              77                              85                                  700.0000       8.0000     100.0000       0.0000 
 87                              85                              87                                  282.8000       8.0000     100.0000       0.0000 
 88                              87                              88                                  500.0000       8.0000     100.0000       0.0000 
 90                              88                              89                                  905.5000       8.0000     100.0000       0.0000 
 92                              61                              62                                  900.0000       8.0000     100.0000       0.0000 
 93                              62                              63                                  700.0000       8.0000     100.0000       0.0000 
 94                              63                              64                                  100.0000       8.0000     100.0000       0.0000 
 95                              64                              65                                  300.0000       4.0000     100.0000       0.0000 